<nodes xmlns:xsi="http://www.w3.org/2001/XMLSchema-instance" xsi:noNamespaceSchemaLocation="http://sumo-sim.org/xsd/nodes_file.xsd">
    <node id="1" x="-500.0" y="0.0" />
    <node id="2" x="+500.0" y="0.0" />
    <node id="3" x="+501.0" y="0.0" />
</nodes>
