<edges xmlns:xsi="http://www.w3.org/2001/XMLSchema-instance" xsi:noNamespaceSchemaLocation="http://sumo-sim.org/xsd/edges_file.xsd">
    <edge from="1" id="main" to="2" numLanes="3" speed="40" />
    <edge from="2" id="out" to="3" numLanes="3" speed="40" />
</edges>
