<?xml version="1.0" encoding="UTF-8"?>
<routes>
  <vType accel="2.0" decel="2.0" id="BasicControl" length="4.0" minGap="0.01" maxSpeed="10.0" sigma="0" impatience="1.0" />
  <vType accel="2.0" decel="2.0" id="NoControlRandAccel" length="4.0" minGap="0.01" maxSpeed="40.0" sigma="0" impatience="1.0" />
  <vType accel="3.0" decel="6.0" id="npc" length="4.0" minGap="0.01" maxSpeed="5.0" sigma="0" impatience="1.0"/>

  <route id="1i" edges="1i 2o"/>
  <route id="2i" edges="2i 1o"/>
  <route id="3i" edges="3i 4o"/>
  <route id="4i" edges="4i 3o"/>

</routes>
