<?xml version="1.0" encoding="UTF-8"?>

<!-- generated on Sun Dec 13 13:53:01 2015 by SUMO netconvert Version 0.21.0
<?xml version="1.0" encoding="UTF-8"?>

<configuration xmlns:xsi="http://www.w3.org/2001/XMLSchema-instance" xsi:noNamespaceSchemaLocation="http://sumo-sim.org/xsd/netconvertConfiguration.xsd">

    <input>
        <node-files value="inter1l.nod.xml"/>
        <edge-files value="inter1l.edg.xml"/>
        <connection-files value="inter1l.con.xml"/>
    </input>

    <output>
        <output-file value="inter1l.net.xml"/>
    </output>

    <processing>
        <speed-in-kmh value="false"/>
        <no-turnarounds value="true"/>
    </processing>

    <report>
        <xml-validation value="never"/>
    </report>

</configuration>
-->

<net version="0.13" xmlns:xsi="http://www.w3.org/2001/XMLSchema-instance" xsi:noNamespaceSchemaLocation="http://sumo-sim.org/xsd/net_file.xsd">

    <location netOffset="100.00,100.00" convBoundary="0.00,0.00,200.00,200.00" origBoundary="-100.00,-100.00,100.00,100.00" projParameter="!"/>

    <edge id=":0_0" function="internal">
        <lane id=":0_0_0" index="0" speed="55.00" length="5.00" shape="98.35,104.75 98.16,103.39 97.57,102.43 96.61,101.84 95.25,101.65"/>
    </edge>
    <edge id=":0_1" function="internal">
        <lane id=":0_1_0" index="0" speed="55.00" length="9.50" shape="98.35,104.75 98.35,95.25"/>
    </edge>
    <edge id=":0_2" function="internal">
        <lane id=":0_2_0" index="0" speed="55.00" length="7.14" shape="98.35,104.75 98.75,101.95 99.95,99.95 101.65,98.93"/>
    </edge>
    <edge id=":0_12" function="internal">
        <lane id=":0_12_0" index="0" speed="55.00" length="3.18" shape="101.65,98.93 101.95,98.75 104.75,98.35"/>
    </edge>
    <edge id=":0_3" function="internal">
        <lane id=":0_3_0" index="0" speed="55.00" length="5.00" shape="104.75,101.65 103.39,101.84 102.43,102.43 101.84,103.39 101.65,104.75"/>
    </edge>
    <edge id=":0_4" function="internal">
        <lane id=":0_4_0" index="0" speed="55.00" length="9.50" shape="104.75,101.65 95.25,101.65"/>
    </edge>
    <edge id=":0_5" function="internal">
        <lane id=":0_5_0" index="0" speed="55.00" length="10.32" shape="104.75,101.65 101.95,101.25 99.95,100.05 98.75,98.05 98.35,95.25"/>
    </edge>
    <edge id=":0_6" function="internal">
        <lane id=":0_6_0" index="0" speed="55.00" length="5.00" shape="101.65,95.25 101.84,96.61 102.43,97.57 103.39,98.16 104.75,98.35"/>
    </edge>
    <edge id=":0_7" function="internal">
        <lane id=":0_7_0" index="0" speed="55.00" length="9.50" shape="101.65,95.25 101.65,104.75"/>
    </edge>
    <edge id=":0_8" function="internal">
        <lane id=":0_8_0" index="0" speed="55.00" length="7.14" shape="101.65,95.25 101.25,98.05 100.05,100.05 98.35,101.07"/>
    </edge>
    <edge id=":0_13" function="internal">
        <lane id=":0_13_0" index="0" speed="55.00" length="3.18" shape="98.35,101.07 98.05,101.25 95.25,101.65"/>
    </edge>
    <edge id=":0_9" function="internal">
        <lane id=":0_9_0" index="0" speed="55.00" length="5.00" shape="95.25,98.35 96.61,98.16 97.57,97.57 98.16,96.61 98.35,95.25"/>
    </edge>
    <edge id=":0_10" function="internal">
        <lane id=":0_10_0" index="0" speed="55.00" length="9.50" shape="95.25,98.35 104.75,98.35"/>
    </edge>
    <edge id=":0_11" function="internal">
        <lane id=":0_11_0" index="0" speed="55.00" length="10.32" shape="95.25,98.35 98.05,98.75 100.05,99.95 101.25,101.95 101.65,104.75"/>
    </edge>

    <edge id="1i" from="1" to="0" priority="-1">
        <lane id="1i_0" index="0" speed="55.00" length="95.25" shape="0.00,98.35 95.25,98.35"/>
    </edge>
    <edge id="1o" from="0" to="1" priority="-1">
        <lane id="1o_0" index="0" speed="55.00" length="95.25" shape="95.25,101.65 0.00,101.65"/>
    </edge>
    <edge id="2i" from="2" to="0" priority="-1">
        <lane id="2i_0" index="0" speed="55.00" length="95.25" shape="200.00,101.65 104.75,101.65"/>
    </edge>
    <edge id="2o" from="0" to="2" priority="-1">
        <lane id="2o_0" index="0" speed="55.00" length="95.25" shape="104.75,98.35 200.00,98.35"/>
    </edge>
    <edge id="3i" from="3" to="0" priority="-1">
        <lane id="3i_0" index="0" speed="55.00" length="95.25" shape="101.65,0.00 101.65,95.25"/>
    </edge>
    <edge id="3o" from="0" to="3" priority="-1">
        <lane id="3o_0" index="0" speed="55.00" length="95.25" shape="98.35,95.25 98.35,0.00"/>
    </edge>
    <edge id="4i" from="4" to="0" priority="-1">
        <lane id="4i_0" index="0" speed="55.00" length="95.25" shape="98.35,200.00 98.35,104.75"/>
    </edge>
    <edge id="4o" from="0" to="4" priority="-1">
        <lane id="4o_0" index="0" speed="55.00" length="95.25" shape="101.65,104.75 101.65,200.00"/>
    </edge>

    <junction id="0" type="priority" x="100.00" y="100.00" incLanes="4i_0 2i_0 3i_0 1i_0" intLanes=":0_0_0 :0_1_0 :0_12_0 :0_3_0 :0_4_0 :0_5_0 :0_6_0 :0_7_0 :0_13_0 :0_9_0 :0_10_0 :0_11_0" shape="96.75,104.75 103.25,104.75 104.75,103.25 104.75,96.75 103.25,95.25 96.75,95.25 95.25,96.75 95.25,103.25">
        <request index="0" response="000000000000" foes="000100010000" cont="0"/>
        <request index="1" response="000000000000" foes="111100110000" cont="0"/>
        <request index="2" response="000011000000" foes="110011110000" cont="1"/>
        <request index="3" response="000010000000" foes="100010000000" cont="0"/>
        <request index="4" response="000110000111" foes="100110000111" cont="0"/>
        <request index="5" response="011110000110" foes="011110000110" cont="0"/>
        <request index="6" response="000000000000" foes="010000000100" cont="0"/>
        <request index="7" response="000000000000" foes="110000111100" cont="0"/>
        <request index="8" response="000000000011" foes="110000110011" cont="1"/>
        <request index="9" response="000000000010" foes="000000100010" cont="0"/>
        <request index="10" response="000111000110" foes="000111100110" cont="0"/>
        <request index="11" response="000110011110" foes="000110011110" cont="0"/>
    </junction>
    <junction id="1" type="dead_end" x="0.00" y="100.00" incLanes="1o_0" intLanes="" shape="-0.00,99.95 -0.00,96.75 0.00,103.25 0.00,100.05"/>
    <junction id="2" type="dead_end" x="200.00" y="100.00" incLanes="2o_0" intLanes="" shape="200.00,100.05 200.00,103.25 200.00,96.75 200.00,99.95"/>
    <junction id="3" type="dead_end" x="100.00" y="0.00" incLanes="3o_0" intLanes="" shape="100.05,-0.00 103.25,-0.00 96.75,0.00 99.95,0.00"/>
    <junction id="4" type="dead_end" x="100.00" y="200.00" incLanes="4o_0" intLanes="" shape="99.95,200.00 96.75,200.00 103.25,200.00 100.05,200.00"/>

    <junction id=":0_12_0" type="internal" x="101.65" y="98.93" incLanes=":0_2_0 3i_0" intLanes=":0_4_0 :0_5_0 :0_6_0 :0_7_0 :0_10_0 :0_11_0"/>
    <junction id=":0_13_0" type="internal" x="98.35" y="101.07" incLanes=":0_8_0 4i_0" intLanes=":0_0_0 :0_1_0 :0_4_0 :0_5_0 :0_10_0 :0_11_0"/>

    <connection from="1i" to="3o" fromLane="0" toLane="0" via=":0_9_0" dir="r" state="m"/>
    <connection from="1i" to="2o" fromLane="0" toLane="0" via=":0_10_0" dir="s" state="m"/>
    <connection from="1i" to="4o" fromLane="0" toLane="0" via=":0_11_0" dir="l" state="m"/>
    <connection from="2i" to="4o" fromLane="0" toLane="0" via=":0_3_0" dir="r" state="m"/>
    <connection from="2i" to="1o" fromLane="0" toLane="0" via=":0_4_0" dir="s" state="m"/>
    <connection from="2i" to="3o" fromLane="0" toLane="0" via=":0_5_0" dir="l" state="m"/>
    <connection from="3i" to="2o" fromLane="0" toLane="0" via=":0_6_0" dir="r" state="M"/>
    <connection from="3i" to="4o" fromLane="0" toLane="0" via=":0_7_0" dir="s" state="M"/>
    <connection from="3i" to="1o" fromLane="0" toLane="0" via=":0_8_0" dir="l" state="m"/>
    <connection from="4i" to="1o" fromLane="0" toLane="0" via=":0_0_0" dir="r" state="M"/>
    <connection from="4i" to="3o" fromLane="0" toLane="0" via=":0_1_0" dir="s" state="M"/>
    <connection from="4i" to="2o" fromLane="0" toLane="0" via=":0_2_0" dir="l" state="m"/>

    <connection from=":0_0" to="1o" fromLane="0" toLane="0" dir="s" state="M"/>
    <connection from=":0_1" to="3o" fromLane="0" toLane="0" dir="s" state="M"/>
    <connection from=":0_2" to="2o" fromLane="0" toLane="0" via=":0_12_0" dir="s" state="m"/>
    <connection from=":0_12" to="2o" fromLane="0" toLane="0" dir="s" state="M"/>
    <connection from=":0_3" to="4o" fromLane="0" toLane="0" dir="s" state="M"/>
    <connection from=":0_4" to="1o" fromLane="0" toLane="0" dir="s" state="M"/>
    <connection from=":0_5" to="3o" fromLane="0" toLane="0" dir="s" state="M"/>
    <connection from=":0_6" to="2o" fromLane="0" toLane="0" dir="s" state="M"/>
    <connection from=":0_7" to="4o" fromLane="0" toLane="0" dir="s" state="M"/>
    <connection from=":0_8" to="1o" fromLane="0" toLane="0" via=":0_13_0" dir="s" state="m"/>
    <connection from=":0_13" to="1o" fromLane="0" toLane="0" dir="s" state="M"/>
    <connection from=":0_9" to="3o" fromLane="0" toLane="0" dir="s" state="M"/>
    <connection from=":0_10" to="2o" fromLane="0" toLane="0" dir="s" state="M"/>
    <connection from=":0_11" to="4o" fromLane="0" toLane="0" dir="s" state="M"/>

</net>
